data_image0
_chemical_formula_structural       Mn4O8Mg2
_chemical_formula_sum              "Mn4 O8 Mg2"
_cell_length_a       5.7924
_cell_length_b       5.7924
_cell_length_c       6.25003
_cell_angle_alpha    62.1288
_cell_angle_beta     62.1288
_cell_angle_gamma    89.4938

_space_group_name_H-M_alt    "P 1"
_space_group_IT_number       1

loop_
  _space_group_symop_operation_xyz
  'x, y, z'

loop_
  _atom_site_type_symbol
  _atom_site_label
  _atom_site_symmetry_multiplicity
  _atom_site_fract_x
  _atom_site_fract_y
  _atom_site_fract_z
  _atom_site_occupancy
  Mn  Mn1       1.0  0.87500  0.12500  0.75000  1.0000
  Mn  Mn1       1.0  0.87500  0.62500  0.25000  1.0000
  Mn  Mn1       1.0  0.37500  0.12500  0.75000  1.0000
  Mn  Mn1       1.0  0.87500  0.12500  0.25000  1.0000
  O   O1        1.0  0.65289  0.87972  0.24232  1.0000
  O   O1        1.0  0.12204  0.89522  0.75768  1.0000
  O   O1        1.0  0.10478  0.87796  0.24232  1.0000
  O   O1        1.0  0.12028  0.34711  0.75768  1.0000
  O   O1        1.0  0.64522  0.37204  0.25768  1.0000
  O   O1        1.0  0.62972  0.90289  0.74232  1.0000
  O   O1        1.0  0.62796  0.35478  0.74232  1.0000
  O   O1        1.0  0.09711  0.37028  0.25768  1.0000
  Mg  Mg1       1.0  0.25000  0.75000  0.50000  1.0000
  Mg  Mg1       1.0  0.50000  0.50000  0.00000  1.0000
