data_image0
_chemical_formula_structural       Mn2Ni2O6
_chemical_formula_sum              "Mn2 Ni2 O6"
_cell_length_a       5.3862
_cell_length_b       5.38614
_cell_length_c       5.38608
_cell_angle_alpha    54.8277
_cell_angle_beta     54.8269
_cell_angle_gamma    54.8272

_space_group_name_H-M_alt    "P 1"
_space_group_IT_number       1

loop_
  _space_group_symop_operation_xyz
  'x, y, z'

loop_
  _atom_site_type_symbol
  _atom_site_label
  _atom_site_symmetry_multiplicity
  _atom_site_fract_x
  _atom_site_fract_y
  _atom_site_fract_z
  _atom_site_occupancy
  Mn  Mn1       1.0  0.84379  0.84379  0.84380  1.0000
  Mn  Mn1       1.0  0.15621  0.15621  0.15620  1.0000
  Ni  Ni1       1.0  0.64394  0.64394  0.64395  1.0000
  Ni  Ni1       1.0  0.35606  0.35606  0.35605  1.0000
  O   O1        1.0  0.77169  0.44111  0.05118  1.0000
  O   O1        1.0  0.05120  0.77168  0.44111  1.0000
  O   O1        1.0  0.44113  0.05118  0.77168  1.0000
  O   O1        1.0  0.22831  0.55889  0.94882  1.0000
  O   O1        1.0  0.94880  0.22832  0.55889  1.0000
  O   O1        1.0  0.55887  0.94882  0.22832  1.0000
