data_image0
_chemical_formula_structural       MnY3Mn4YMn3O20
_chemical_formula_sum              "Mn8 Y4 O20"
_cell_length_a       7.43639
_cell_length_b       8.61035
_cell_length_c       5.7777
_cell_angle_alpha    90
_cell_angle_beta     90
_cell_angle_gamma    90

_space_group_name_H-M_alt    "P 1"
_space_group_IT_number       1

loop_
  _space_group_symop_operation_xyz
  'x, y, z'

loop_
  _atom_site_type_symbol
  _atom_site_label
  _atom_site_symmetry_multiplicity
  _atom_site_fract_x
  _atom_site_fract_y
  _atom_site_fract_z
  _atom_site_occupancy
  Mn  Mn2       1.0  0.50000  1.00000  0.24496  1.0000
  Y   Y1        1.0  0.14070  0.82892  0.50000  1.0000
  Y   Y1        1.0  0.35930  0.32892  0.50000  1.0000
  Y   Y1        1.0  0.64070  0.67108  0.50000  1.0000
  Mn  Mn1       1.0  0.58978  0.34996  0.00000  1.0000
  Mn  Mn1       1.0  0.41022  0.65004  0.00000  1.0000
  Mn  Mn1       1.0  0.08978  0.15004  0.00000  1.0000
  Mn  Mn1       1.0  0.91022  0.84996  0.00000  1.0000
  Y   Y1        1.0  0.85930  0.17108  0.50000  1.0000
  Mn  Mn2       1.0  1.00000  0.50000  0.75504  1.0000
  Mn  Mn2       1.0  0.50000  1.00000  0.75504  1.0000
  Mn  Mn2       1.0  1.00000  0.50000  0.24496  1.0000
  O   O1        1.0  0.60304  0.20714  0.25645  1.0000
  O   O1        1.0  0.39696  0.79286  0.25645  1.0000
  O   O1        1.0  0.10304  0.29286  0.74355  1.0000
  O   O1        1.0  0.89696  0.70714  0.74355  1.0000
  O   O1        1.0  0.39696  0.79286  0.74355  1.0000
  O   O1        1.0  0.60304  0.20714  0.74355  1.0000
  O   O1        1.0  0.89696  0.70714  0.25645  1.0000
  O   O1        1.0  0.10304  0.29286  0.25645  1.0000
  O   O2        1.0  0.83854  0.44497  0.50000  1.0000
  O   O2        1.0  0.16146  0.55503  0.50000  1.0000
  O   O2        1.0  0.33854  0.05503  0.50000  1.0000
  O   O2        1.0  0.66146  0.94497  0.50000  1.0000
  O   O3        1.0  0.84811  0.43330  0.00000  1.0000
  O   O3        1.0  0.15189  0.56670  0.00000  1.0000
  O   O3        1.0  0.34811  0.06670  0.00000  1.0000
  O   O3        1.0  0.65189  0.93330  0.00000  1.0000
  O   O4        1.0  0.50000  0.50000  0.22731  1.0000
  O   O4        1.0  1.00000  1.00000  0.77269  1.0000
  O   O4        1.0  0.50000  0.50000  0.77269  1.0000
  O   O4        1.0  1.00000  1.00000  0.22731  1.0000
