data_image0
_chemical_formula_structural       FeNb8Fe3O24
_chemical_formula_sum              "Fe4 Nb8 O24"
_cell_length_a       14.5221
_cell_length_b       5.86726
_cell_length_c       5.13366
_cell_angle_alpha    90.0064
_cell_angle_beta     90.0004
_cell_angle_gamma    90.0017

_space_group_name_H-M_alt    "P 1"
_space_group_IT_number       1

loop_
  _space_group_symop_operation_xyz
  'x, y, z'

loop_
  _atom_site_type_symbol
  _atom_site_label
  _atom_site_symmetry_multiplicity
  _atom_site_fract_x
  _atom_site_fract_y
  _atom_site_fract_z
  _atom_site_occupancy
  Fe  Fe1       1.0  0.00000  0.65818  0.74998  1.0000
  Nb  Nb1       1.0  0.16076  0.82301  0.24277  1.0000
  Nb  Nb1       1.0  0.83926  0.82300  0.25722  1.0000
  Nb  Nb1       1.0  0.66075  0.67700  0.75725  1.0000
  Nb  Nb1       1.0  0.66075  0.32301  0.25720  1.0000
  Nb  Nb1       1.0  0.83925  0.17700  0.75724  1.0000
  Nb  Nb1       1.0  0.16074  0.17699  0.74278  1.0000
  Nb  Nb1       1.0  0.33925  0.32299  0.24275  1.0000
  Nb  Nb1       1.0  0.33925  0.67699  0.74280  1.0000
  Fe  Fe1       1.0  0.49999  0.84182  0.25006  1.0000
  Fe  Fe1       1.0  0.00001  0.34182  0.24999  1.0000
  Fe  Fe1       1.0  0.50002  0.15818  0.74999  1.0000
  O   O1        1.0  0.09707  0.89386  0.57131  1.0000
  O   O1        1.0  0.40292  0.60617  0.07136  1.0000
  O   O1        1.0  0.59707  0.60612  0.42871  1.0000
  O   O1        1.0  0.90293  0.89385  0.92867  1.0000
  O   O1        1.0  0.90293  0.10613  0.42869  1.0000
  O   O1        1.0  0.59707  0.39380  0.92862  1.0000
  O   O1        1.0  0.40293  0.39391  0.57127  1.0000
  O   O1        1.0  0.09707  0.10617  0.07134  1.0000
  O   O2        1.0  0.42032  0.88000  0.58317  1.0000
  O   O2        1.0  0.07969  0.62006  0.08304  1.0000
  O   O2        1.0  0.92031  0.62001  0.41690  1.0000
  O   O2        1.0  0.57969  0.87993  0.91702  1.0000
  O   O2        1.0  0.57968  0.12006  0.41687  1.0000
  O   O2        1.0  0.92031  0.37999  0.91693  1.0000
  O   O2        1.0  0.07968  0.37994  0.58307  1.0000
  O   O2        1.0  0.42030  0.12000  0.08302  1.0000
  O   O3        1.0  0.75549  0.87793  0.58624  1.0000
  O   O3        1.0  0.74450  0.62204  0.08625  1.0000
  O   O3        1.0  0.25549  0.62208  0.41377  1.0000
  O   O3        1.0  0.24450  0.87796  0.91376  1.0000
  O   O3        1.0  0.24451  0.12207  0.41376  1.0000
  O   O3        1.0  0.25550  0.37796  0.91375  1.0000
  O   O3        1.0  0.74451  0.37792  0.58623  1.0000
  O   O3        1.0  0.75550  0.12204  0.08624  1.0000
