data_image0
_chemical_formula_structural       Mn7O12La
_chemical_formula_sum              "Mn7 O12 La1"
_cell_length_a       6.50126
_cell_length_b       6.5013
_cell_length_c       6.62091
_cell_angle_alpha    108.774
_cell_angle_beta     108.827
_cell_angle_gamma    110.096

_space_group_name_H-M_alt    "P 1"
_space_group_IT_number       1

loop_
  _space_group_symop_operation_xyz
  'x, y, z'

loop_
  _atom_site_type_symbol
  _atom_site_label
  _atom_site_symmetry_multiplicity
  _atom_site_fract_x
  _atom_site_fract_y
  _atom_site_fract_z
  _atom_site_occupancy
  Mn  Mn3       1.0  0.50000  1.00000  0.50000  1.0000
  Mn  Mn2       1.0  0.00000  0.50000  0.50000  1.0000
  Mn  Mn1       1.0  0.50000  0.50000  0.00000  1.0000
  Mn  Mn4       1.0  1.00000  1.00000  0.50000  1.0000
  Mn  Mn4       1.0  0.50000  0.50000  0.50000  1.0000
  Mn  Mn5       1.0  1.00000  0.50000  1.00000  1.0000
  Mn  Mn5       1.0  0.50000  1.00000  1.00000  1.0000
  O   O1        1.0  0.69418  0.16760  0.86178  1.0000
  O   O1        1.0  0.30582  0.83240  0.13822  1.0000
  O   O2        1.0  0.68690  0.82158  0.50848  1.0000
  O   O2        1.0  0.31310  0.17842  0.49152  1.0000
  O   O3        1.0  0.19115  0.48912  0.32887  1.0000
  O   O3        1.0  0.16026  0.86229  0.67112  1.0000
  O   O3        1.0  0.80885  0.51088  0.67113  1.0000
  O   O3        1.0  0.83974  0.13771  0.32888  1.0000
  O   O4        1.0  0.13826  0.32646  0.84568  1.0000
  O   O4        1.0  0.48079  0.29258  0.15432  1.0000
  O   O4        1.0  0.86174  0.67354  0.15432  1.0000
  O   O4        1.0  0.51921  0.70742  0.84568  1.0000
  La  La1       1.0  1.00000  0.00000  0.00000  1.0000
